data_functionalizedCrystal
_audit_creation_method  'MofGen! by CNS'
_symmetry_space_group_name_H-M  'P1'
_symmetry_Int_Tables_number     1
_symmetry_cell_setting  triclinic
loop_
_symmetry_equiv_pos_as_xyz
  x,y,z
_cell_length_a  29.707134 
_cell_length_b  29.707132 
_cell_length_c  27.390921 
_cell_angle_alpha  90.001136 
_cell_angle_beta  90.001476 
_cell_angle_gamma  83.634672 
loop_
_atom_site_label
_atom_site_type_symbol
_atom_site_fract_x
_atom_site_fract_y
_atom_site_fract_z
O1 O 0.058850   0.098182   0.040563  
O2 O 0.065861   0.466952   0.040571  
O3 O 0.496740   0.036073   0.040568  
O4 O 0.127971   0.029062   0.040566  
O5 O 0.496737   0.036068   0.292702  
O6 O 0.065858   0.466948   0.292705  
O7 O 0.058847   0.098177   0.292697  
Cu8 Cu 0.062352   0.032562   0.285287  
Cu9 Cu 0.062356   0.032568   0.047981  
O10 O 0.127968   0.029057   0.292699  
C11 C 0.065542   0.450156   0.333305  
C12 C 0.064590   0.400114   0.333308  
C13 C 0.479944   0.035752   0.333303  
C14 C 0.429903   0.034801   0.333308  
C15 C 0.060567   0.188524   0.044229  
C16 C 0.060563   0.188529   0.289035  
C17 C 0.061457   0.235546   0.289036  
C18 C 0.061907   0.259054   0.333301  
C19 C 0.061461   0.235546   0.044231  
C20 C 0.061907   0.259058   0.244774  
C21 C 0.062801   0.306078   0.244773  
C22 C 0.063247   0.329587   0.289039  
C23 C 0.062801   0.306076   0.333304  
C24 C 0.063251   0.329584   0.044236  
C25 C 0.062802   0.306073   0.088502  
C26 C 0.061907   0.259055   0.088497  
C27 C 0.064141   0.376606   0.289044  
C28 C 0.064145   0.376605   0.044239  
C29 C 0.223636   0.489717   0.333301  
C30 C 0.212996   0.071834   0.333296  
C31 C 0.260012   0.072729   0.333299  
C32 C 0.288844   0.032118   0.333302  
C33 C 0.270658   0.490611   0.333302  
C34 C 0.278201   0.114235   0.333294  
C35 C 0.325221   0.115132   0.333296  
C36 C 0.354053   0.074520   0.333303  
C37 C 0.335865   0.033011   0.333303  
C38 C 0.364696   0.492401   0.333306  
C39 C 0.346508   0.450892   0.333311  
C40 C 0.299489   0.449999   0.333309  
C41 C 0.401072   0.075412   0.333305  
C42 C 0.411717   0.493294   0.333308  
C43 C 0.144763   0.029377   0.333299  
C44 C 0.194805   0.030329   0.333298  
C45 C 0.059166   0.114974   0.333297  
C46 C 0.060117   0.165016   0.333297  
N47 N 0.062350   0.032560   0.217746  
C48 C 0.007564   0.477823   0.217730  
C49 C 0.480172   0.450459   0.192167  
C50 C 0.480171   0.450466   0.141056  
C51 C 0.007568   0.477838   0.115507  
C52 C 0.034962   0.005202   0.141070  
C53 C 0.034958   0.005193   0.192182  
C54 C 0.089748   0.059936   0.141085  
C55 C 0.089747   0.059933   0.192197  
C56 C 0.117145   0.087309   0.115536  
C57 C 0.144537   0.114676   0.141100  
C58 C 0.144536   0.114668   0.192214  
C59 C 0.117140   0.087297   0.217760  
N60 N 0.062355   0.032573   0.115522  
H61 H 0.064510   0.395742   0.080285  
H62 H 0.117135   0.087290   0.259377  
H63 H 0.063171   0.325219   0.124542  
H64 H 0.254724   0.147299   0.333287  
H65 H 0.369988   0.417826   0.333310  
H66 H 0.457867   0.428182   0.120242  
H67 H 0.061542   0.239908   0.124536  
H68 H 0.435189   0.460223   0.333312  
H69 H 0.007570   0.477836   0.073889  
H70 H 0.208825   0.455923   0.333306  
H71 H 0.060200   0.169380   0.080269  
H72 H 0.060201   0.169385   0.252996  
H73 H 0.340025   0.148930   0.333293  
H74 H 0.284677   0.416206   0.333312  
H75 H 0.061544   0.239914   0.208736  
H76 H 0.415878   0.109208   0.333298  
H77 H 0.063165   0.325216   0.208730  
H78 H 0.166846   0.136949   0.213025  
H79 H 0.064511   0.395745   0.253003  
H80 H 0.117145   0.087310   0.073919  
H81 H 0.166844   0.136958   0.120294  
H82 H 0.457866   0.428173   0.212975  
H83 H 0.007559   0.477819   0.259348  
H84 H 0.189519   0.104898   0.333290  
O85 O 0.058850   0.098182   0.373897  
O86 O 0.065861   0.466952   0.373904  
O87 O 0.496740   0.036073   0.373902  
O88 O 0.127971   0.029062   0.373899  
O89 O 0.496738   0.036068   0.626035  
O90 O 0.065858   0.466948   0.626038  
O91 O 0.058847   0.098177   0.626030  
Cu92 Cu 0.062352   0.032562   0.618620  
Cu93 Cu 0.062356   0.032568   0.381315  
O94 O 0.127968   0.029057   0.626033  
C95 C 0.065542   0.450155   0.666639  
C96 C 0.064590   0.400114   0.666642  
C97 C 0.479945   0.035752   0.666637  
C98 C 0.429903   0.034801   0.666641  
C99 C 0.060567   0.188524   0.377562  
C100 C 0.060563   0.188529   0.622368  
C101 C 0.061457   0.235546   0.622370  
C102 C 0.061907   0.259054   0.666635  
C103 C 0.061462   0.235545   0.377565  
C104 C 0.061907   0.259058   0.578107  
C105 C 0.062801   0.306078   0.578107  
C106 C 0.063247   0.329587   0.622372  
C107 C 0.062801   0.306076   0.666637  
C108 C 0.063251   0.329584   0.377569  
C109 C 0.062802   0.306073   0.421835  
C110 C 0.061907   0.259055   0.421830  
C111 C 0.064142   0.376606   0.622377  
C112 C 0.064145   0.376605   0.377572  
C113 C 0.223636   0.489718   0.666634  
C114 C 0.212996   0.071834   0.666630  
C115 C 0.260012   0.072729   0.666632  
C116 C 0.288844   0.032118   0.666635  
C117 C 0.270657   0.490611   0.666636  
C118 C 0.278202   0.114235   0.666627  
C119 C 0.325221   0.115132   0.666629  
C120 C 0.354053   0.074520   0.666636  
C121 C 0.335865   0.033011   0.666637  
C122 C 0.364696   0.492401   0.666640  
C123 C 0.346508   0.450892   0.666644  
C124 C 0.299489   0.450000   0.666642  
C125 C 0.401072   0.075412   0.666638  
C126 C 0.411717   0.493294   0.666641  
C127 C 0.144763   0.029377   0.666632  
C128 C 0.194805   0.030329   0.666631  
C129 C 0.059166   0.114974   0.666630  
C130 C 0.060117   0.165016   0.666630  
N131 N 0.062350   0.032560   0.551079  
C132 C 0.007564   0.477823   0.551064  
C133 C 0.480172   0.450459   0.525500  
C134 C 0.480171   0.450466   0.474389  
C135 C 0.007568   0.477838   0.448840  
C136 C 0.034962   0.005202   0.474403  
C137 C 0.034958   0.005193   0.525516  
C138 C 0.089748   0.059936   0.474419  
C139 C 0.089747   0.059933   0.525530  
C140 C 0.117146   0.087309   0.448870  
C141 C 0.144537   0.114676   0.474433  
C142 C 0.144536   0.114668   0.525547  
C143 C 0.117140   0.087297   0.551093  
N144 N 0.062355   0.032573   0.448856  
H145 H 0.064510   0.395742   0.413618  
H146 H 0.117135   0.087290   0.592711  
H147 H 0.063171   0.325219   0.457875  
H148 H 0.254724   0.147299   0.666620  
H149 H 0.369989   0.417826   0.666643  
H150 H 0.457867   0.428182   0.453576  
H151 H 0.061542   0.239908   0.457869  
H152 H 0.435189   0.460223   0.666646  
H153 H 0.007570   0.477836   0.407223  
H154 H 0.208826   0.455923   0.666640  
H155 H 0.060200   0.169380   0.413602  
H156 H 0.060201   0.169385   0.586330  
H157 H 0.340025   0.148930   0.666627  
H158 H 0.284677   0.416206   0.666645  
H159 H 0.061544   0.239914   0.542069  
H160 H 0.415878   0.109208   0.666631  
H161 H 0.063165   0.325216   0.542063  
H162 H 0.166846   0.136949   0.546358  
H163 H 0.064511   0.395745   0.586336  
H164 H 0.117145   0.087310   0.407252  
H165 H 0.166844   0.136958   0.453627  
H166 H 0.457866   0.428173   0.546308  
H167 H 0.007559   0.477819   0.592681  
H168 H 0.189519   0.104898   0.666623  
O169 O 0.058850   0.098182   0.707230  
O170 O 0.065861   0.466953   0.707238  
O171 O 0.496740   0.036073   0.707235  
O172 O 0.127970   0.029062   0.707232  
O173 O 0.496738   0.036068   0.959369  
O174 O 0.065858   0.466948   0.959371  
O175 O 0.058847   0.098177   0.959364  
Cu176 Cu 0.062352   0.032562   0.951953  
Cu177 Cu 0.062356   0.032568   0.714648  
O178 O 0.127968   0.029057   0.959366  
C179 C 0.065542   0.450155   0.999972  
C180 C 0.064591   0.400114   0.999975  
C181 C 0.479945   0.035752   0.999970  
C182 C 0.429903   0.034801   0.999974  
C183 C 0.060567   0.188524   0.710895  
C184 C 0.060563   0.188529   0.955702  
C185 C 0.061458   0.235546   0.955703  
C186 C 0.061907   0.259054   0.999968  
C187 C 0.061462   0.235545   0.710898  
C188 C 0.061907   0.259058   0.911440  
C189 C 0.062801   0.306078   0.911440  
C190 C 0.063247   0.329587   0.955706  
C191 C 0.062801   0.306076   0.999971  
C192 C 0.063251   0.329584   0.710902  
C193 C 0.062802   0.306073   0.755168  
C194 C 0.061907   0.259055   0.755164  
C195 C 0.064142   0.376605   0.955710  
C196 C 0.064145   0.376605   0.710905  
C197 C 0.223636   0.489718   0.999968  
C198 C 0.212995   0.071834   0.999963  
C199 C 0.260012   0.072729   0.999966  
C200 C 0.288844   0.032118   0.999969  
C201 C 0.270657   0.490612   0.999969  
C202 C 0.278202   0.114235   0.999961  
C203 C 0.325221   0.115132   0.999963  
C204 C 0.354053   0.074520   0.999969  
C205 C 0.335865   0.033011   0.999970  
C206 C 0.364696   0.492401   0.999973  
C207 C 0.346508   0.450892   0.999977  
C208 C 0.299490   0.450000   0.999975  
C209 C 0.401072   0.075412   0.999971  
C210 C 0.411717   0.493294   0.999974  
C211 C 0.144763   0.029377   0.999966  
C212 C 0.194805   0.030329   0.999965  
C213 C 0.059166   0.114974   0.999964  
C214 C 0.060117   0.165016   0.999964  
N215 N 0.062350   0.032560   0.884412  
C216 C 0.007564   0.477823   0.884397  
C217 C 0.480172   0.450459   0.858834  
C218 C 0.480171   0.450466   0.807722  
C219 C 0.007568   0.477838   0.782173  
C220 C 0.034961   0.005202   0.807737  
C221 C 0.034958   0.005193   0.858849  
C222 C 0.089748   0.059936   0.807752  
C223 C 0.089747   0.059933   0.858863  
C224 C 0.117146   0.087309   0.782203  
C225 C 0.144537   0.114676   0.807766  
C226 C 0.144536   0.114668   0.858881  
C227 C 0.117140   0.087297   0.884427  
N228 N 0.062355   0.032573   0.782189  
H229 H 0.064510   0.395742   0.746952  
H230 H 0.117135   0.087290   0.926044  
H231 H 0.063171   0.325219   0.791209  
H232 H 0.254724   0.147299   0.999954  
H233 H 0.369988   0.417826   0.999976  
H234 H 0.457867   0.428181   0.786909  
H235 H 0.061542   0.239908   0.791202  
H236 H 0.435189   0.460223   0.999979  
H237 H 0.007570   0.477837   0.740556  
H238 H 0.208826   0.455923   0.999973  
H239 H 0.060200   0.169380   0.746935  
H240 H 0.060202   0.169385   0.919663  
H241 H 0.340025   0.148930   0.999960  
H242 H 0.284677   0.416205   0.999978  
H243 H 0.061544   0.239914   0.875402  
H244 H 0.415878   0.109208   0.999965  
H245 H 0.063165   0.325216   0.875396  
H246 H 0.166846   0.136949   0.879691  
H247 H 0.064511   0.395745   0.919670  
H248 H 0.117145   0.087310   0.740586  
H249 H 0.166844   0.136958   0.786960  
H250 H 0.457866   0.428173   0.879641  
H251 H 0.007559   0.477818   0.926014  
H252 H 0.189518   0.104898   0.999957  
O253 O 0.058850   0.598182   0.040563  
O254 O 0.065861   0.966953   0.040571  
O255 O 0.496740   0.536073   0.040568  
O256 O 0.127971   0.529062   0.040566  
O257 O 0.496737   0.536068   0.292702  
O258 O 0.065858   0.966948   0.292705  
O259 O 0.058847   0.598177   0.292697  
Cu260 Cu 0.062352   0.532562   0.285287  
Cu261 Cu 0.062356   0.532568   0.047981  
O262 O 0.127968   0.529057   0.292699  
C263 C 0.065542   0.950155   0.333305  
C264 C 0.064590   0.900114   0.333308  
C265 C 0.479945   0.535753   0.333303  
C266 C 0.429903   0.534801   0.333308  
C267 C 0.060566   0.688524   0.044229  
C268 C 0.060564   0.688529   0.289035  
C269 C 0.061458   0.735546   0.289036  
C270 C 0.061907   0.759054   0.333301  
C271 C 0.061462   0.735545   0.044231  
C272 C 0.061907   0.759058   0.244774  
C273 C 0.062801   0.806078   0.244773  
C274 C 0.063247   0.829587   0.289039  
C275 C 0.062802   0.806075   0.333304  
C276 C 0.063251   0.829584   0.044236  
C277 C 0.062802   0.806073   0.088502  
C278 C 0.061907   0.759055   0.088497  
C279 C 0.064141   0.876605   0.289044  
C280 C 0.064145   0.876605   0.044239  
C281 C 0.223636   0.989718   0.333301  
C282 C 0.212996   0.571834   0.333296  
C283 C 0.260012   0.572729   0.333299  
C284 C 0.288844   0.532118   0.333302  
C285 C 0.270657   0.990612   0.333302  
C286 C 0.278202   0.614235   0.333294  
C287 C 0.325221   0.615132   0.333296  
C288 C 0.354053   0.574520   0.333303  
C289 C 0.335864   0.533012   0.333303  
C290 C 0.364696   0.992401   0.333306  
C291 C 0.346508   0.950892   0.333311  
C292 C 0.299489   0.949999   0.333309  
C293 C 0.401072   0.575412   0.333305  
C294 C 0.411717   0.993294   0.333308  
C295 C 0.144763   0.529377   0.333299  
C296 C 0.194805   0.530329   0.333298  
C297 C 0.059166   0.614974   0.333297  
C298 C 0.060117   0.665016   0.333297  
N299 N 0.062349   0.532560   0.217746  
C300 C 0.007564   0.977823   0.217730  
C301 C 0.480171   0.950459   0.192167  
C302 C 0.480171   0.950465   0.141056  
C303 C 0.007568   0.977838   0.115507  
C304 C 0.034961   0.505202   0.141070  
C305 C 0.034958   0.505193   0.192182  
C306 C 0.089748   0.559936   0.141085  
C307 C 0.089746   0.559933   0.192197  
C308 C 0.117145   0.587309   0.115536  
C309 C 0.144537   0.614676   0.141100  
C310 C 0.144536   0.614668   0.192214  
C311 C 0.117140   0.587297   0.217760  
N312 N 0.062355   0.532573   0.115522  
H313 H 0.064510   0.895742   0.080285  
H314 H 0.117135   0.587290   0.259377  
H315 H 0.063171   0.825219   0.124542  
H316 H 0.254724   0.647299   0.333287  
H317 H 0.369988   0.917827   0.333310  
H318 H 0.457867   0.928181   0.120242  
H319 H 0.061542   0.739908   0.124536  
H320 H 0.435189   0.960223   0.333312  
H321 H 0.007570   0.977837   0.073889  
H322 H 0.208825   0.955923   0.333306  
H323 H 0.060199   0.669380   0.080269  
H324 H 0.060201   0.669386   0.252996  
H325 H 0.340025   0.648931   0.333293  
H326 H 0.284677   0.916206   0.333312  
H327 H 0.061544   0.739914   0.208736  
H328 H 0.415878   0.609207   0.333298  
H329 H 0.063165   0.825216   0.208730  
H330 H 0.166846   0.636949   0.213025  
H331 H 0.064511   0.895745   0.253003  
H332 H 0.117146   0.587310   0.073919  
H333 H 0.166844   0.636958   0.120294  
H334 H 0.457866   0.928173   0.212975  
H335 H 0.007559   0.977818   0.259348  
H336 H 0.189518   0.604898   0.333290  
O337 O 0.058850   0.598182   0.373897  
O338 O 0.065861   0.966953   0.373904  
O339 O 0.496740   0.536073   0.373902  
O340 O 0.127970   0.529062   0.373899  
O341 O 0.496738   0.536068   0.626035  
O342 O 0.065858   0.966948   0.626038  
O343 O 0.058847   0.598177   0.626030  
Cu344 Cu 0.062352   0.532562   0.618620  
Cu345 Cu 0.062356   0.532568   0.381315  
O346 O 0.127968   0.529057   0.626033  
C347 C 0.065542   0.950155   0.666639  
C348 C 0.064590   0.900114   0.666642  
C349 C 0.479945   0.535752   0.666637  
C350 C 0.429903   0.534801   0.666641  
C351 C 0.060566   0.688524   0.377562  
C352 C 0.060563   0.688529   0.622368  
C353 C 0.061458   0.735546   0.622370  
C354 C 0.061907   0.759054   0.666635  
C355 C 0.061461   0.735546   0.377565  
C356 C 0.061906   0.759058   0.578107  
C357 C 0.062801   0.806078   0.578107  
C358 C 0.063247   0.829587   0.622372  
C359 C 0.062801   0.806075   0.666637  
C360 C 0.063250   0.829584   0.377569  
C361 C 0.062802   0.806073   0.421835  
C362 C 0.061907   0.759055   0.421830  
C363 C 0.064142   0.876605   0.622377  
C364 C 0.064145   0.876605   0.377572  
C365 C 0.223636   0.989718   0.666634  
C366 C 0.212996   0.571834   0.666630  
C367 C 0.260012   0.572729   0.666632  
C368 C 0.288844   0.532118   0.666635  
C369 C 0.270657   0.990611   0.666636  
C370 C 0.278202   0.614235   0.666627  
C371 C 0.325221   0.615131   0.666629  
C372 C 0.354053   0.574520   0.666636  
C373 C 0.335865   0.533011   0.666637  
C374 C 0.364696   0.992401   0.666640  
C375 C 0.346508   0.950892   0.666644  
C376 C 0.299489   0.949999   0.666642  
C377 C 0.401072   0.575412   0.666638  
C378 C 0.411717   0.993294   0.666641  
C379 C 0.144763   0.529377   0.666632  
C380 C 0.194805   0.530329   0.666631  
C381 C 0.059166   0.614974   0.666630  
C382 C 0.060118   0.665016   0.666630  
N383 N 0.062349   0.532560   0.551079  
C384 C 0.007564   0.977823   0.551064  
C385 C 0.480171   0.950459   0.525500  
C386 C 0.480171   0.950465   0.474389  
C387 C 0.007568   0.977838   0.448840  
C388 C 0.034962   0.505202   0.474403  
C389 C 0.034958   0.505193   0.525516  
C390 C 0.089748   0.559936   0.474419  
C391 C 0.089747   0.559933   0.525530  
C392 C 0.117145   0.587309   0.448870  
C393 C 0.144537   0.614676   0.474433  
C394 C 0.144535   0.614669   0.525547  
C395 C 0.117140   0.587297   0.551093  
N396 N 0.062355   0.532573   0.448856  
H397 H 0.064510   0.895742   0.413618  
H398 H 0.117135   0.587290   0.592711  
H399 H 0.063171   0.825219   0.457875  
H400 H 0.254724   0.647298   0.666620  
H401 H 0.369988   0.917827   0.666643  
H402 H 0.457867   0.928182   0.453576  
H403 H 0.061542   0.739908   0.457869  
H404 H 0.435189   0.960223   0.666646  
H405 H 0.007570   0.977837   0.407223  
H406 H 0.208825   0.955923   0.666640  
H407 H 0.060199   0.669380   0.413602  
H408 H 0.060201   0.669386   0.586330  
H409 H 0.340025   0.648930   0.666627  
H410 H 0.284677   0.916206   0.666645  
H411 H 0.061544   0.739914   0.542069  
H412 H 0.415878   0.609208   0.666631  
H413 H 0.063165   0.825216   0.542063  
H414 H 0.166846   0.636949   0.546358  
H415 H 0.064511   0.895745   0.586336  
H416 H 0.117146   0.587310   0.407252  
H417 H 0.166844   0.636958   0.453627  
H418 H 0.457866   0.928172   0.546308  
H419 H 0.007559   0.977818   0.592681  
H420 H 0.189518   0.604898   0.666623  
O421 O 0.058850   0.598183   0.707230  
O422 O 0.065861   0.966953   0.707238  
O423 O 0.496740   0.536073   0.707235  
O424 O 0.127971   0.529062   0.707232  
O425 O 0.496737   0.536068   0.959369  
O426 O 0.065858   0.966948   0.959371  
O427 O 0.058847   0.598177   0.959364  
Cu428 Cu 0.062352   0.532562   0.951953  
Cu429 Cu 0.062356   0.532568   0.714648  
O430 O 0.127968   0.529057   0.959366  
C431 C 0.065542   0.950155   0.999972  
C432 C 0.064590   0.900114   0.999975  
C433 C 0.479945   0.535752   0.999970  
C434 C 0.429903   0.534801   0.999974  
C435 C 0.060566   0.688524   0.710895  
C436 C 0.060564   0.688529   0.955702  
C437 C 0.061457   0.735546   0.955703  
C438 C 0.061907   0.759054   0.999968  
C439 C 0.061462   0.735545   0.710898  
C440 C 0.061906   0.759058   0.911440  
C441 C 0.062801   0.806078   0.911440  
C442 C 0.063247   0.829587   0.955706  
C443 C 0.062802   0.806075   0.999971  
C444 C 0.063250   0.829584   0.710902  
C445 C 0.062802   0.806073   0.755168  
C446 C 0.061907   0.759054   0.755164  
C447 C 0.064142   0.876605   0.955710  
C448 C 0.064146   0.876605   0.710905  
C449 C 0.223636   0.989718   0.999968  
C450 C 0.212996   0.571834   0.999963  
C451 C 0.260012   0.572729   0.999966  
C452 C 0.288844   0.532118   0.999969  
C453 C 0.270657   0.990612   0.999969  
C454 C 0.278202   0.614235   0.999961  
C455 C 0.325221   0.615132   0.999963  
C456 C 0.354053   0.574520   0.999969  
C457 C 0.335864   0.533011   0.999970  
C458 C 0.364696   0.992401   0.999973  
C459 C 0.346508   0.950892   0.999977  
C460 C 0.299490   0.949999   0.999975  
C461 C 0.401072   0.575412   0.999971  
C462 C 0.411717   0.993294   0.999974  
C463 C 0.144763   0.529377   0.999966  
C464 C 0.194805   0.530329   0.999965  
C465 C 0.059166   0.614974   0.999964  
C466 C 0.060118   0.665016   0.999964  
N467 N 0.062349   0.532560   0.884412  
C468 C 0.007564   0.977823   0.884397  
C469 C 0.480171   0.950459   0.858834  
C470 C 0.480171   0.950465   0.807722  
C471 C 0.007568   0.977838   0.782173  
C472 C 0.034961   0.505202   0.807737  
C473 C 0.034958   0.505193   0.858849  
C474 C 0.089748   0.559936   0.807752  
C475 C 0.089746   0.559933   0.858863  
C476 C 0.117145   0.587309   0.782203  
C477 C 0.144537   0.614676   0.807766  
C478 C 0.144536   0.614668   0.858881  
C479 C 0.117140   0.587297   0.884427  
N480 N 0.062355   0.532573   0.782189  
H481 H 0.064510   0.895742   0.746952  
H482 H 0.117135   0.587290   0.926044  
H483 H 0.063171   0.825219   0.791209  
H484 H 0.254724   0.647299   0.999954  
H485 H 0.369988   0.917827   0.999976  
H486 H 0.457867   0.928182   0.786909  
H487 H 0.061542   0.739909   0.791202  
H488 H 0.435189   0.960223   0.999979  
H489 H 0.007570   0.977837   0.740556  
H490 H 0.208825   0.955923   0.999973  
H491 H 0.060199   0.669380   0.746935  
H492 H 0.060202   0.669386   0.919663  
H493 H 0.340025   0.648930   0.999960  
H494 H 0.284677   0.916206   0.999978  
H495 H 0.061544   0.739914   0.875402  
H496 H 0.415878   0.609207   0.999965  
H497 H 0.063165   0.825216   0.875396  
H498 H 0.166846   0.636949   0.879691  
H499 H 0.064511   0.895745   0.919670  
H500 H 0.117145   0.587310   0.740586  
H501 H 0.166844   0.636958   0.786960  
H502 H 0.457866   0.928173   0.879641  
H503 H 0.007559   0.977818   0.926014  
H504 H 0.189518   0.604898   0.999957  
O505 O 0.558850   0.098182   0.040563  
O506 O 0.565861   0.466952   0.040571  
O507 O 0.996740   0.036073   0.040568  
O508 O 0.627970   0.029062   0.040566  
O509 O 0.996738   0.036068   0.292702  
O510 O 0.565858   0.466948   0.292705  
O511 O 0.558847   0.098177   0.292697  
Cu512 Cu 0.562352   0.032562   0.285287  
Cu513 Cu 0.562356   0.032568   0.047981  
O514 O 0.627968   0.029057   0.292699  
C515 C 0.565542   0.450156   0.333305  
C516 C 0.564590   0.400114   0.333308  
C517 C 0.979944   0.035752   0.333303  
C518 C 0.929903   0.034801   0.333308  
C519 C 0.560566   0.188524   0.044229  
C520 C 0.560563   0.188529   0.289035  
C521 C 0.561457   0.235546   0.289036  
C522 C 0.561906   0.259054   0.333301  
C523 C 0.561462   0.235546   0.044231  
C524 C 0.561906   0.259058   0.244774  
C525 C 0.562801   0.306078   0.244773  
C526 C 0.563247   0.329587   0.289039  
C527 C 0.562802   0.306076   0.333304  
C528 C 0.563250   0.329584   0.044236  
C529 C 0.562802   0.306073   0.088502  
C530 C 0.561908   0.259055   0.088497  
C531 C 0.564141   0.376606   0.289044  
C532 C 0.564146   0.376605   0.044239  
C533 C 0.723636   0.489717   0.333301  
C534 C 0.712996   0.071834   0.333296  
C535 C 0.760012   0.072729   0.333299  
C536 C 0.788844   0.032118   0.333302  
C537 C 0.770657   0.490611   0.333302  
C538 C 0.778202   0.114235   0.333294  
C539 C 0.825221   0.115132   0.333296  
C540 C 0.854053   0.074520   0.333303  
C541 C 0.835865   0.033011   0.333303  
C542 C 0.864696   0.492401   0.333306  
C543 C 0.846508   0.450892   0.333311  
C544 C 0.799490   0.449999   0.333309  
C545 C 0.901072   0.075412   0.333305  
C546 C 0.911717   0.493294   0.333308  
C547 C 0.644763   0.029377   0.333299  
C548 C 0.694805   0.030329   0.333298  
C549 C 0.559166   0.114974   0.333297  
C550 C 0.560118   0.165016   0.333297  
N551 N 0.562350   0.032560   0.217746  
C552 C 0.507565   0.477823   0.217730  
C553 C 0.980172   0.450459   0.192167  
C554 C 0.980171   0.450466   0.141056  
C555 C 0.507568   0.477838   0.115507  
C556 C 0.534961   0.005202   0.141070  
C557 C 0.534958   0.005193   0.192182  
C558 C 0.589748   0.059936   0.141085  
C559 C 0.589746   0.059933   0.192197  
C560 C 0.617146   0.087309   0.115536  
C561 C 0.644537   0.114676   0.141100  
C562 C 0.644536   0.114668   0.192214  
C563 C 0.617140   0.087297   0.217760  
N564 N 0.562355   0.032573   0.115522  
H565 H 0.564510   0.395742   0.080285  
H566 H 0.617135   0.087290   0.259377  
H567 H 0.563171   0.325219   0.124542  
H568 H 0.754724   0.147299   0.333287  
H569 H 0.869989   0.417826   0.333310  
H570 H 0.957868   0.428182   0.120242  
H571 H 0.561542   0.239908   0.124536  
H572 H 0.935189   0.460223   0.333312  
H573 H 0.507570   0.477836   0.073889  
H574 H 0.708826   0.455923   0.333306  
H575 H 0.560199   0.169380   0.080269  
H576 H 0.560202   0.169385   0.252996  
H577 H 0.840025   0.148930   0.333293  
H578 H 0.784677   0.416206   0.333312  
H579 H 0.561544   0.239914   0.208736  
H580 H 0.915878   0.109208   0.333298  
H581 H 0.563165   0.325216   0.208730  
H582 H 0.666845   0.136949   0.213025  
H583 H 0.564511   0.395745   0.253003  
H584 H 0.617146   0.087310   0.073919  
H585 H 0.666844   0.136958   0.120294  
H586 H 0.957866   0.428173   0.212975  
H587 H 0.507559   0.477819   0.259348  
H588 H 0.689518   0.104898   0.333290  
O589 O 0.558850   0.098182   0.373897  
O590 O 0.565861   0.466952   0.373904  
O591 O 0.996741   0.036073   0.373902  
O592 O 0.627970   0.029062   0.373899  
O593 O 0.996738   0.036068   0.626035  
O594 O 0.565858   0.466948   0.626038  
O595 O 0.558847   0.098177   0.626030  
Cu596 Cu 0.562352   0.032562   0.618620  
Cu597 Cu 0.562356   0.032568   0.381315  
O598 O 0.627968   0.029057   0.626033  
C599 C 0.565542   0.450155   0.666639  
C600 C 0.564591   0.400114   0.666642  
C601 C 0.979944   0.035752   0.666637  
C602 C 0.929903   0.034801   0.666641  
C603 C 0.560566   0.188524   0.377562  
C604 C 0.560563   0.188529   0.622368  
C605 C 0.561457   0.235546   0.622370  
C606 C 0.561906   0.259054   0.666635  
C607 C 0.561462   0.235545   0.377565  
C608 C 0.561906   0.259058   0.578107  
C609 C 0.562801   0.306078   0.578107  
C610 C 0.563247   0.329587   0.622372  
C611 C 0.562802   0.306076   0.666637  
C612 C 0.563251   0.329584   0.377569  
C613 C 0.562802   0.306073   0.421835  
C614 C 0.561908   0.259055   0.421830  
C615 C 0.564141   0.376606   0.622377  
C616 C 0.564146   0.376605   0.377572  
C617 C 0.723636   0.489718   0.666634  
C618 C 0.712996   0.071834   0.666630  
C619 C 0.760012   0.072729   0.666632  
C620 C 0.788844   0.032118   0.666635  
C621 C 0.770657   0.490611   0.666636  
C622 C 0.778202   0.114235   0.666627  
C623 C 0.825221   0.115132   0.666629  
C624 C 0.854053   0.074520   0.666636  
C625 C 0.835865   0.033011   0.666637  
C626 C 0.864696   0.492401   0.666640  
C627 C 0.846508   0.450892   0.666644  
C628 C 0.799490   0.450000   0.666642  
C629 C 0.901072   0.075412   0.666638  
C630 C 0.911717   0.493294   0.666641  
C631 C 0.644763   0.029377   0.666632  
C632 C 0.694805   0.030329   0.666631  
C633 C 0.559166   0.114974   0.666630  
C634 C 0.560117   0.165016   0.666630  
N635 N 0.562350   0.032560   0.551079  
C636 C 0.507565   0.477823   0.551064  
C637 C 0.980172   0.450459   0.525500  
C638 C 0.980171   0.450466   0.474389  
C639 C 0.507569   0.477838   0.448840  
C640 C 0.534961   0.005202   0.474403  
C641 C 0.534958   0.005193   0.525516  
C642 C 0.589748   0.059936   0.474419  
C643 C 0.589746   0.059933   0.525530  
C644 C 0.617146   0.087309   0.448870  
C645 C 0.644537   0.114676   0.474433  
C646 C 0.644536   0.114668   0.525547  
C647 C 0.617140   0.087297   0.551093  
N648 N 0.562355   0.032573   0.448856  
H649 H 0.564510   0.395742   0.413618  
H650 H 0.617135   0.087290   0.592711  
H651 H 0.563171   0.325219   0.457875  
H652 H 0.754724   0.147299   0.666620  
H653 H 0.869989   0.417826   0.666643  
H654 H 0.957867   0.428182   0.453576  
H655 H 0.561542   0.239908   0.457869  
H656 H 0.935189   0.460223   0.666646  
H657 H 0.507570   0.477836   0.407223  
H658 H 0.708826   0.455923   0.666640  
H659 H 0.560199   0.169380   0.413602  
H660 H 0.560202   0.169385   0.586330  
H661 H 0.840025   0.148930   0.666627  
H662 H 0.784677   0.416206   0.666645  
H663 H 0.561544   0.239914   0.542069  
H664 H 0.915878   0.109208   0.666631  
H665 H 0.563165   0.325216   0.542063  
H666 H 0.666845   0.136949   0.546358  
H667 H 0.564511   0.395745   0.586336  
H668 H 0.617146   0.087310   0.407252  
H669 H 0.666844   0.136958   0.453627  
H670 H 0.957866   0.428173   0.546308  
H671 H 0.507559   0.477819   0.592681  
H672 H 0.689518   0.104898   0.666623  
O673 O 0.558850   0.098182   0.707230  
O674 O 0.565861   0.466953   0.707238  
O675 O 0.996741   0.036073   0.707235  
O676 O 0.627970   0.029062   0.707232  
O677 O 0.996738   0.036068   0.959369  
O678 O 0.565858   0.466948   0.959371  
O679 O 0.558847   0.098177   0.959364  
Cu680 Cu 0.562352   0.032562   0.951953  
Cu681 Cu 0.562356   0.032568   0.714648  
O682 O 0.627968   0.029057   0.959366  
C683 C 0.565542   0.450155   0.999972  
C684 C 0.564591   0.400114   0.999975  
C685 C 0.979944   0.035752   0.999970  
C686 C 0.929903   0.034801   0.999974  
C687 C 0.560566   0.188524   0.710895  
C688 C 0.560563   0.188529   0.955702  
C689 C 0.561457   0.235546   0.955703  
C690 C 0.561906   0.259054   0.999968  
C691 C 0.561462   0.235545   0.710898  
C692 C 0.561906   0.259058   0.911440  
C693 C 0.562801   0.306078   0.911440  
C694 C 0.563247   0.329587   0.955706  
C695 C 0.562801   0.306076   0.999971  
C696 C 0.563250   0.329584   0.710902  
C697 C 0.562802   0.306073   0.755168  
C698 C 0.561907   0.259055   0.755164  
C699 C 0.564141   0.376605   0.955710  
C700 C 0.564145   0.376605   0.710905  
C701 C 0.723636   0.489718   0.999968  
C702 C 0.712996   0.071834   0.999963  
C703 C 0.760012   0.072729   0.999966  
C704 C 0.788844   0.032118   0.999969  
C705 C 0.770657   0.490612   0.999969  
C706 C 0.778201   0.114235   0.999961  
C707 C 0.825221   0.115132   0.999963  
C708 C 0.854053   0.074520   0.999969  
C709 C 0.835865   0.033011   0.999970  
C710 C 0.864696   0.492401   0.999973  
C711 C 0.846508   0.450892   0.999977  
C712 C 0.799489   0.450000   0.999975  
C713 C 0.901072   0.075412   0.999971  
C714 C 0.911717   0.493294   0.999974  
C715 C 0.644763   0.029377   0.999966  
C716 C 0.694805   0.030329   0.999965  
C717 C 0.559166   0.114974   0.999964  
C718 C 0.560118   0.165016   0.999964  
N719 N 0.562350   0.032560   0.884412  
C720 C 0.507565   0.477823   0.884397  
C721 C 0.980171   0.450459   0.858834  
C722 C 0.980171   0.450466   0.807722  
C723 C 0.507569   0.477838   0.782173  
C724 C 0.534961   0.005202   0.807737  
C725 C 0.534958   0.005193   0.858849  
C726 C 0.589748   0.059936   0.807752  
C727 C 0.589746   0.059933   0.858863  
C728 C 0.617146   0.087309   0.782203  
C729 C 0.644537   0.114676   0.807766  
C730 C 0.644536   0.114668   0.858881  
C731 C 0.617140   0.087297   0.884427  
N732 N 0.562355   0.032573   0.782189  
H733 H 0.564510   0.395742   0.746952  
H734 H 0.617135   0.087290   0.926044  
H735 H 0.563171   0.325219   0.791209  
H736 H 0.754724   0.147299   0.999954  
H737 H 0.869989   0.417826   0.999976  
H738 H 0.957868   0.428181   0.786909  
H739 H 0.561542   0.239908   0.791202  
H740 H 0.935189   0.460223   0.999979  
H741 H 0.507570   0.477837   0.740556  
H742 H 0.708825   0.455923   0.999973  
H743 H 0.560199   0.169380   0.746935  
H744 H 0.560202   0.169385   0.919663  
H745 H 0.840025   0.148930   0.999960  
H746 H 0.784677   0.416205   0.999978  
H747 H 0.561544   0.239914   0.875402  
H748 H 0.915878   0.109208   0.999965  
H749 H 0.563165   0.325216   0.875396  
H750 H 0.666845   0.136949   0.879691  
H751 H 0.564511   0.395745   0.919670  
H752 H 0.617146   0.087310   0.740586  
H753 H 0.666844   0.136958   0.786960  
H754 H 0.957866   0.428173   0.879641  
H755 H 0.507559   0.477818   0.926014  
H756 H 0.689518   0.104898   0.999957  
O757 O 0.558850   0.598182   0.040563  
O758 O 0.565861   0.966953   0.040571  
O759 O 0.996741   0.536073   0.040568  
O760 O 0.627970   0.529062   0.040566  
O761 O 0.996738   0.536068   0.292702  
O762 O 0.565858   0.966948   0.292705  
O763 O 0.558847   0.598177   0.292697  
Cu764 Cu 0.562352   0.532562   0.285287  
Cu765 Cu 0.562356   0.532568   0.047981  
O766 O 0.627968   0.529057   0.292699  
C767 C 0.565542   0.950155   0.333305  
C768 C 0.564590   0.900114   0.333308  
C769 C 0.979945   0.535753   0.333303  
C770 C 0.929903   0.534801   0.333308  
C771 C 0.560566   0.688524   0.044229  
C772 C 0.560564   0.688529   0.289035  
C773 C 0.561458   0.735546   0.289036  
C774 C 0.561906   0.759054   0.333301  
C775 C 0.561462   0.735545   0.044231  
C776 C 0.561906   0.759058   0.244774  
C777 C 0.562801   0.806078   0.244773  
C778 C 0.563247   0.829587   0.289039  
C779 C 0.562801   0.806075   0.333304  
C780 C 0.563250   0.829584   0.044236  
C781 C 0.562802   0.806073   0.088502  
C782 C 0.561908   0.759055   0.088497  
C783 C 0.564141   0.876605   0.289044  
C784 C 0.564146   0.876605   0.044239  
C785 C 0.723636   0.989718   0.333301  
C786 C 0.712996   0.571834   0.333296  
C787 C 0.760012   0.572729   0.333299  
C788 C 0.788844   0.532118   0.333302  
C789 C 0.770657   0.990612   0.333302  
C790 C 0.778202   0.614235   0.333294  
C791 C 0.825221   0.615132   0.333296  
C792 C 0.854053   0.574520   0.333303  
C793 C 0.835865   0.533012   0.333303  
C794 C 0.864696   0.992401   0.333306  
C795 C 0.846508   0.950892   0.333311  
C796 C 0.799489   0.949999   0.333309  
C797 C 0.901072   0.575412   0.333305  
C798 C 0.911717   0.993294   0.333308  
C799 C 0.644763   0.529377   0.333299  
C800 C 0.694805   0.530329   0.333298  
C801 C 0.559166   0.614974   0.333297  
C802 C 0.560118   0.665016   0.333297  
N803 N 0.562350   0.532560   0.217746  
C804 C 0.507564   0.977823   0.217730  
C805 C 0.980172   0.950459   0.192167  
C806 C 0.980171   0.950465   0.141056  
C807 C 0.507569   0.977838   0.115507  
C808 C 0.534961   0.505202   0.141070  
C809 C 0.534958   0.505193   0.192182  
C810 C 0.589748   0.559936   0.141085  
C811 C 0.589747   0.559933   0.192197  
C812 C 0.617145   0.587309   0.115536  
C813 C 0.644537   0.614676   0.141100  
C814 C 0.644536   0.614668   0.192214  
C815 C 0.617140   0.587297   0.217760  
N816 N 0.562355   0.532573   0.115522  
H817 H 0.564510   0.895742   0.080285  
H818 H 0.617135   0.587290   0.259377  
H819 H 0.563171   0.825219   0.124542  
H820 H 0.754724   0.647299   0.333287  
H821 H 0.869989   0.917827   0.333310  
H822 H 0.957867   0.928181   0.120242  
H823 H 0.561542   0.739908   0.124536  
H824 H 0.935189   0.960223   0.333312  
H825 H 0.507570   0.977837   0.073889  
H826 H 0.708826   0.955923   0.333306  
H827 H 0.560199   0.669380   0.080269  
H828 H 0.560202   0.669386   0.252996  
H829 H 0.840025   0.648931   0.333293  
H830 H 0.784677   0.916206   0.333312  
H831 H 0.561544   0.739914   0.208736  
H832 H 0.915878   0.609207   0.333298  
H833 H 0.563165   0.825216   0.208730  
H834 H 0.666845   0.636949   0.213025  
H835 H 0.564511   0.895745   0.253003  
H836 H 0.617146   0.587310   0.073919  
H837 H 0.666844   0.636958   0.120294  
H838 H 0.957866   0.928173   0.212975  
H839 H 0.507559   0.977818   0.259348  
H840 H 0.689518   0.604898   0.333290  
O841 O 0.558850   0.598182   0.373897  
O842 O 0.565861   0.966953   0.373904  
O843 O 0.996740   0.536073   0.373902  
O844 O 0.627970   0.529062   0.373899  
O845 O 0.996738   0.536068   0.626035  
O846 O 0.565858   0.966948   0.626038  
O847 O 0.558847   0.598177   0.626030  
Cu848 Cu 0.562352   0.532562   0.618620  
Cu849 Cu 0.562356   0.532568   0.381315  
O850 O 0.627968   0.529057   0.626033  
C851 C 0.565542   0.950155   0.666639  
C852 C 0.564591   0.900114   0.666642  
C853 C 0.979944   0.535752   0.666637  
C854 C 0.929903   0.534801   0.666641  
C855 C 0.560566   0.688524   0.377562  
C856 C 0.560564   0.688529   0.622368  
C857 C 0.561458   0.735546   0.622370  
C858 C 0.561906   0.759054   0.666635  
C859 C 0.561461   0.735546   0.377565  
C860 C 0.561906   0.759058   0.578107  
C861 C 0.562801   0.806078   0.578107  
C862 C 0.563247   0.829587   0.622372  
C863 C 0.562802   0.806075   0.666637  
C864 C 0.563251   0.829584   0.377569  
C865 C 0.562802   0.806073   0.421835  
C866 C 0.561907   0.759055   0.421830  
C867 C 0.564141   0.876605   0.622377  
C868 C 0.564146   0.876605   0.377572  
C869 C 0.723636   0.989718   0.666634  
C870 C 0.712996   0.571834   0.666630  
C871 C 0.760012   0.572729   0.666632  
C872 C 0.788844   0.532118   0.666635  
C873 C 0.770657   0.990611   0.666636  
C874 C 0.778202   0.614235   0.666627  
C875 C 0.825221   0.615131   0.666629  
C876 C 0.854053   0.574520   0.666636  
C877 C 0.835865   0.533011   0.666637  
C878 C 0.864696   0.992401   0.666640  
C879 C 0.846508   0.950892   0.666644  
C880 C 0.799489   0.949999   0.666642  
C881 C 0.901072   0.575412   0.666638  
C882 C 0.911717   0.993294   0.666641  
C883 C 0.644763   0.529377   0.666632  
C884 C 0.694805   0.530329   0.666631  
C885 C 0.559166   0.614974   0.666630  
C886 C 0.560117   0.665016   0.666630  
N887 N 0.562350   0.532560   0.551079  
C888 C 0.507565   0.977823   0.551064  
C889 C 0.980172   0.950459   0.525500  
C890 C 0.980171   0.950465   0.474389  
C891 C 0.507569   0.977838   0.448840  
C892 C 0.534961   0.505202   0.474403  
C893 C 0.534958   0.505193   0.525516  
C894 C 0.589748   0.559936   0.474419  
C895 C 0.589747   0.559933   0.525530  
C896 C 0.617145   0.587309   0.448870  
C897 C 0.644537   0.614676   0.474433  
C898 C 0.644536   0.614669   0.525547  
C899 C 0.617140   0.587297   0.551093  
N900 N 0.562355   0.532573   0.448856  
H901 H 0.564510   0.895742   0.413618  
H902 H 0.617135   0.587290   0.592711  
H903 H 0.563171   0.825219   0.457875  
H904 H 0.754724   0.647298   0.666620  
H905 H 0.869989   0.917827   0.666643  
H906 H 0.957868   0.928182   0.453576  
H907 H 0.561542   0.739908   0.457869  
H908 H 0.935189   0.960223   0.666646  
H909 H 0.507570   0.977837   0.407223  
H910 H 0.708826   0.955923   0.666640  
H911 H 0.560200   0.669380   0.413602  
H912 H 0.560202   0.669386   0.586330  
H913 H 0.840025   0.648930   0.666627  
H914 H 0.784677   0.916206   0.666645  
H915 H 0.561544   0.739914   0.542069  
H916 H 0.915878   0.609208   0.666631  
H917 H 0.563165   0.825216   0.542063  
H918 H 0.666845   0.636949   0.546358  
H919 H 0.564511   0.895745   0.586336  
H920 H 0.617146   0.587310   0.407252  
H921 H 0.666844   0.636958   0.453627  
H922 H 0.957866   0.928172   0.546308  
H923 H 0.507559   0.977818   0.592681  
H924 H 0.689518   0.604898   0.666623  
O925 O 0.558850   0.598183   0.707230  
O926 O 0.565861   0.966953   0.707238  
O927 O 0.996741   0.536073   0.707235  
O928 O 0.627970   0.529062   0.707232  
O929 O 0.996738   0.536068   0.959369  
O930 O 0.565858   0.966948   0.959371  
O931 O 0.558847   0.598177   0.959364  
Cu932 Cu 0.562352   0.532562   0.951953  
Cu933 Cu 0.562356   0.532568   0.714648  
O934 O 0.627968   0.529057   0.959366  
C935 C 0.565542   0.950155   0.999972  
C936 C 0.564591   0.900114   0.999975  
C937 C 0.979945   0.535752   0.999970  
C938 C 0.929903   0.534801   0.999974  
C939 C 0.560566   0.688524   0.710895  
C940 C 0.560563   0.688529   0.955702  
C941 C 0.561458   0.735546   0.955703  
C942 C 0.561906   0.759054   0.999968  
C943 C 0.561461   0.735545   0.710898  
C944 C 0.561906   0.759058   0.911440  
C945 C 0.562801   0.806078   0.911440  
C946 C 0.563247   0.829587   0.955706  
C947 C 0.562801   0.806075   0.999971  
C948 C 0.563250   0.829584   0.710902  
C949 C 0.562802   0.806073   0.755168  
C950 C 0.561907   0.759054   0.755164  
C951 C 0.564142   0.876605   0.955710  
C952 C 0.564146   0.876605   0.710905  
C953 C 0.723636   0.989718   0.999968  
C954 C 0.712996   0.571834   0.999963  
C955 C 0.760012   0.572729   0.999966  
C956 C 0.788844   0.532118   0.999969  
C957 C 0.770658   0.990612   0.999969  
C958 C 0.778201   0.614235   0.999961  
C959 C 0.825221   0.615132   0.999963  
C960 C 0.854053   0.574520   0.999969  
C961 C 0.835865   0.533011   0.999970  
C962 C 0.864696   0.992401   0.999973  
C963 C 0.846508   0.950892   0.999977  
C964 C 0.799489   0.949999   0.999975  
C965 C 0.901072   0.575412   0.999971  
C966 C 0.911717   0.993294   0.999974  
C967 C 0.644763   0.529377   0.999966  
C968 C 0.694805   0.530329   0.999965  
C969 C 0.559166   0.614974   0.999964  
C970 C 0.560118   0.665016   0.999964  
N971 N 0.562349   0.532560   0.884412  
C972 C 0.507565   0.977823   0.884397  
C973 C 0.980172   0.950459   0.858834  
C974 C 0.980171   0.950465   0.807722  
C975 C 0.507569   0.977838   0.782173  
C976 C 0.534961   0.505202   0.807737  
C977 C 0.534958   0.505193   0.858849  
C978 C 0.589748   0.559936   0.807752  
C979 C 0.589746   0.559933   0.858863  
C980 C 0.617146   0.587309   0.782203  
C981 C 0.644537   0.614676   0.807766  
C982 C 0.644536   0.614668   0.858881  
C983 C 0.617140   0.587297   0.884427  
N984 N 0.562355   0.532573   0.782189  
H985 H 0.564510   0.895742   0.746952  
H986 H 0.617135   0.587290   0.926044  
H987 H 0.563171   0.825219   0.791209  
H988 H 0.754724   0.647299   0.999954  
H989 H 0.869989   0.917827   0.999976  
H990 H 0.957868   0.928182   0.786909  
H991 H 0.561542   0.739909   0.791202  
H992 H 0.935189   0.960223   0.999979  
H993 H 0.507570   0.977837   0.740556  
H994 H 0.708825   0.955923   0.999973  
H995 H 0.560199   0.669380   0.746935  
H996 H 0.560202   0.669386   0.919663  
H997 H 0.840025   0.648930   0.999960  
H998 H 0.784677   0.916206   0.999978  
H999 H 0.561544   0.739914   0.875402  
H1000 H 0.915878   0.609207   0.999965  
H1001 H 0.563165   0.825216   0.875396  
H1002 H 0.666846   0.636949   0.879691  
H1003 H 0.564511   0.895745   0.919670  
H1004 H 0.617146   0.587310   0.740586  
H1005 H 0.666844   0.636958   0.786960  
H1006 H 0.957866   0.928173   0.879641  
H1007 H 0.507559   0.977818   0.926014  
H1008 H 0.689518   0.604898   0.999957  
